/*--------------------------------*- C++ -*----------------------------------*\
  =========                 |
  \\      /  F ield         | OpenFOAM: The Open Source CFD Toolbox
   \\    /   O peration     | Website:  https://openfoam.org
    \\  /    A nd           | Version:  7
     \\/     M anipulation  |
\*---------------------------------------------------------------------------*/
FoamFile
{
    version     2.0;
    format      ascii;
    class       extendedFeatureEdgeMesh;
    location    "constant/extendedFeatureEdgeMesh";
    object      flap.extendedFeatureEdgeMesh;
}
// * * * * * * * * * * * * * * * * * * * * * * * * * * * * * * * * * * * * * //

// points

210
(
(0.977651 -0.079072 -0.5)
(0.976705 -0.086776 -0.5)
(0.976705 -0.086776 0.5)
(0.977651 -0.079072 0.5)
(0.75 -0.044255 -0.5)
(0.75 -0.043593 -0.5)
(0.75 -0.043593 0.5)
(0.75 -0.044255 0.5)
(0.785675 -0.016666 -0.5)
(0.793536 -0.018882 -0.5)
(0.808997 -0.023431 -0.5)
(0.8237 -0.027841 -0.5)
(0.837677 -0.032126 -0.5)
(0.850988 -0.036204 -0.5)
(0.863634 -0.04019 -0.5)
(0.875671 -0.044008 -0.5)
(0.887113 -0.047711 -0.5)
(0.897978 -0.051337 -0.5)
(0.908345 -0.054731 -0.5)
(0.918171 -0.058107 -0.5)
(0.927543 -0.061278 -0.5)
(0.936442 -0.064377 -0.5)
(0.944915 -0.067332 -0.5)
(0.952986 -0.070149 -0.5)
(0.960671 -0.07283 -0.5)
(0.967936 -0.075535 -0.5)
(0.974878 -0.078048 -0.5)
(0.974878 -0.078048 0.5)
(0.967936 -0.075535 0.5)
(0.960671 -0.07283 0.5)
(0.952986 -0.070149 0.5)
(0.944915 -0.067332 0.5)
(0.936442 -0.064377 0.5)
(0.927543 -0.061278 0.5)
(0.918171 -0.058107 0.5)
(0.908345 -0.054731 0.5)
(0.897978 -0.051337 0.5)
(0.887113 -0.047711 0.5)
(0.875671 -0.044008 0.5)
(0.863634 -0.04019 0.5)
(0.850988 -0.036204 0.5)
(0.837677 -0.032126 0.5)
(0.8237 -0.027841 0.5)
(0.808997 -0.023431 0.5)
(0.793536 -0.018882 0.5)
(0.785675 -0.016666 0.5)
(0.776208 -0.072197 0.5)
(0.788046 -0.072955 0.5)
(0.804086 -0.073967 0.5)
(0.819316 -0.075046 0.5)
(0.833785 -0.076061 0.5)
(0.847532 -0.077018 0.5)
(0.86059 -0.077922 0.5)
(0.872998 -0.078772 0.5)
(0.884776 -0.079698 0.5)
(0.89597 -0.080506 0.5)
(0.906605 -0.081255 0.5)
(0.916704 -0.082035 0.5)
(0.926301 -0.082749 0.5)
(0.935409 -0.083538 0.5)
(0.944071 -0.084157 0.5)
(0.952294 -0.084826 0.5)
(0.960109 -0.085417 0.5)
(0.967527 -0.08606 0.5)
(0.97458 -0.0866 0.5)
(0.97458 -0.0866 -0.5)
(0.967527 -0.08606 -0.5)
(0.960109 -0.085417 -0.5)
(0.952294 -0.084826 -0.5)
(0.944071 -0.084157 -0.5)
(0.935409 -0.083538 -0.5)
(0.926301 -0.082749 -0.5)
(0.916704 -0.082035 -0.5)
(0.906605 -0.081255 -0.5)
(0.89597 -0.080506 -0.5)
(0.884776 -0.079698 -0.5)
(0.872998 -0.078772 -0.5)
(0.86059 -0.077922 -0.5)
(0.847532 -0.077018 -0.5)
(0.833785 -0.076061 -0.5)
(0.819316 -0.075046 -0.5)
(0.804086 -0.073967 -0.5)
(0.788046 -0.072955 -0.5)
(0.776208 -0.072197 -0.5)
(0.774759 -0.072067 -0.5)
(0.774759 -0.072067 0.5)
(0.773319 -0.071861 0.5)
(0.771892 -0.07158 0.5)
(0.770481 -0.071226 0.5)
(0.769091 -0.070799 0.5)
(0.767724 -0.070301 0.5)
(0.766385 -0.069732 0.5)
(0.765078 -0.069094 0.5)
(0.763805 -0.06839 0.5)
(0.762571 -0.06762 0.5)
(0.761378 -0.066787 0.5)
(0.76023 -0.065894 0.5)
(0.759131 -0.064942 0.5)
(0.758082 -0.063934 0.5)
(0.757087 -0.062873 0.5)
(0.756148 -0.061761 0.5)
(0.755268 -0.060603 0.5)
(0.75445 -0.0594 0.5)
(0.753695 -0.058157 0.5)
(0.753006 -0.056876 0.5)
(0.752384 -0.055561 0.5)
(0.751832 -0.054215 0.5)
(0.75135 -0.052843 0.5)
(0.75094 -0.051447 0.5)
(0.750603 -0.050032 0.5)
(0.750339 -0.048601 0.5)
(0.750151 -0.047159 0.5)
(0.750038 -0.045709 0.5)
(0.750038 -0.045709 -0.5)
(0.750151 -0.047159 -0.5)
(0.750339 -0.048601 -0.5)
(0.750603 -0.050032 -0.5)
(0.75094 -0.051447 -0.5)
(0.75135 -0.052843 -0.5)
(0.751832 -0.054215 -0.5)
(0.752384 -0.055561 -0.5)
(0.753006 -0.056876 -0.5)
(0.753695 -0.058157 -0.5)
(0.75445 -0.0594 -0.5)
(0.755268 -0.060603 -0.5)
(0.756148 -0.061761 -0.5)
(0.757087 -0.062873 -0.5)
(0.758082 -0.063934 -0.5)
(0.759131 -0.064942 -0.5)
(0.76023 -0.065894 -0.5)
(0.761378 -0.066787 -0.5)
(0.762571 -0.06762 -0.5)
(0.763805 -0.06839 -0.5)
(0.765078 -0.069094 -0.5)
(0.766385 -0.069732 -0.5)
(0.767724 -0.070301 -0.5)
(0.769091 -0.070799 -0.5)
(0.770481 -0.071226 -0.5)
(0.771892 -0.07158 -0.5)
(0.773319 -0.071861 -0.5)
(0.784242 -0.016298 0.5)
(0.784242 -0.016298 -0.5)
(0.782793 -0.016007 -0.5)
(0.78133 -0.015792 -0.5)
(0.779858 -0.015655 -0.5)
(0.77838 -0.015596 -0.5)
(0.776902 -0.015615 -0.5)
(0.775426 -0.015712 -0.5)
(0.773958 -0.015887 -0.5)
(0.772501 -0.016139 -0.5)
(0.77106 -0.016467 -0.5)
(0.769637 -0.016871 -0.5)
(0.768238 -0.01735 -0.5)
(0.766867 -0.017902 -0.5)
(0.765526 -0.018525 -0.5)
(0.76422 -0.019219 -0.5)
(0.762953 -0.01998 -0.5)
(0.761727 -0.020807 -0.5)
(0.760547 -0.021698 -0.5)
(0.759416 -0.02265 -0.5)
(0.758336 -0.02366 -0.5)
(0.757311 -0.024726 -0.5)
(0.756344 -0.025845 -0.5)
(0.755437 -0.027012 -0.5)
(0.754593 -0.028227 -0.5)
(0.753815 -0.029484 -0.5)
(0.753104 -0.03078 -0.5)
(0.752462 -0.032112 -0.5)
(0.751892 -0.033476 -0.5)
(0.751394 -0.034868 -0.5)
(0.750971 -0.036285 -0.5)
(0.750622 -0.037722 -0.5)
(0.750351 -0.039176 -0.5)
(0.750156 -0.040641 -0.5)
(0.750039 -0.042115 -0.5)
(0.750039 -0.042115 0.5)
(0.750156 -0.040641 0.5)
(0.750351 -0.039176 0.5)
(0.750622 -0.037722 0.5)
(0.750971 -0.036285 0.5)
(0.751394 -0.034868 0.5)
(0.751892 -0.033476 0.5)
(0.752462 -0.032112 0.5)
(0.753104 -0.03078 0.5)
(0.753815 -0.029484 0.5)
(0.754593 -0.028227 0.5)
(0.755437 -0.027012 0.5)
(0.756344 -0.025845 0.5)
(0.757311 -0.024726 0.5)
(0.758336 -0.02366 0.5)
(0.759416 -0.02265 0.5)
(0.760547 -0.021698 0.5)
(0.761727 -0.020807 0.5)
(0.762953 -0.01998 0.5)
(0.76422 -0.019219 0.5)
(0.765526 -0.018525 0.5)
(0.766867 -0.017902 0.5)
(0.768238 -0.01735 0.5)
(0.769637 -0.016871 0.5)
(0.77106 -0.016467 0.5)
(0.772501 -0.016139 0.5)
(0.773958 -0.015887 0.5)
(0.775426 -0.015712 0.5)
(0.776902 -0.015615 0.5)
(0.77838 -0.015596 0.5)
(0.779858 -0.015655 0.5)
(0.78133 -0.015792 0.5)
(0.782793 -0.016007 0.5)
(0.976705 -0.086776 -0.182709)
(0.977651 -0.079072 0.079683)
)

// edges

212
(
(1 208)
(3 209)
(208 2)
(209 0)
(4 5)
(6 7)
(0 1)
(2 3)
(8 9)
(9 10)
(10 11)
(11 12)
(12 13)
(13 14)
(14 15)
(15 16)
(16 17)
(17 18)
(18 19)
(19 20)
(20 21)
(21 22)
(22 23)
(23 24)
(24 25)
(25 26)
(27 28)
(28 29)
(29 30)
(30 31)
(31 32)
(32 33)
(33 34)
(34 35)
(35 36)
(36 37)
(37 38)
(38 39)
(39 40)
(40 41)
(41 42)
(42 43)
(43 44)
(44 45)
(3 27)
(26 0)
(46 47)
(47 48)
(48 49)
(49 50)
(50 51)
(51 52)
(52 53)
(53 54)
(54 55)
(55 56)
(56 57)
(57 58)
(58 59)
(59 60)
(60 61)
(61 62)
(62 63)
(63 64)
(65 66)
(66 67)
(67 68)
(68 69)
(69 70)
(70 71)
(71 72)
(72 73)
(73 74)
(74 75)
(75 76)
(76 77)
(77 78)
(78 79)
(79 80)
(80 81)
(81 82)
(82 83)
(1 65)
(64 2)
(83 84)
(85 46)
(86 85)
(87 86)
(88 87)
(89 88)
(90 89)
(91 90)
(92 91)
(93 92)
(94 93)
(95 94)
(96 95)
(97 96)
(98 97)
(99 98)
(100 99)
(101 100)
(102 101)
(103 102)
(104 103)
(105 104)
(106 105)
(107 106)
(108 107)
(109 108)
(110 109)
(111 110)
(112 111)
(7 112)
(113 4)
(114 113)
(115 114)
(116 115)
(117 116)
(118 117)
(119 118)
(120 119)
(121 120)
(122 121)
(123 122)
(124 123)
(125 124)
(126 125)
(127 126)
(128 127)
(129 128)
(130 129)
(131 130)
(132 131)
(133 132)
(134 133)
(135 134)
(136 135)
(137 136)
(138 137)
(139 138)
(84 139)
(45 140)
(141 8)
(142 141)
(143 142)
(144 143)
(145 144)
(146 145)
(147 146)
(148 147)
(149 148)
(150 149)
(151 150)
(152 151)
(153 152)
(154 153)
(155 154)
(156 155)
(157 156)
(158 157)
(159 158)
(160 159)
(161 160)
(162 161)
(163 162)
(164 163)
(165 164)
(166 165)
(167 166)
(168 167)
(169 168)
(170 169)
(171 170)
(172 171)
(173 172)
(174 173)
(5 174)
(175 6)
(176 175)
(177 176)
(178 177)
(179 178)
(180 179)
(181 180)
(182 181)
(183 182)
(184 183)
(185 184)
(186 185)
(187 186)
(188 187)
(189 188)
(190 189)
(191 190)
(192 191)
(193 192)
(194 193)
(195 194)
(196 195)
(197 196)
(198 197)
(199 198)
(200 199)
(201 200)
(202 201)
(203 202)
(204 203)
(205 204)
(206 205)
(207 206)
(140 207)
)

// concaveStart mixedStart nonFeatureStart
0 0 4
// internalStart flatStart openStart multipleStart
0 4 4 212
// normals

210
(
(1 0 0)
(1 0 -0)
(-0.992545 0.121878 0)
(-0.992545 0.121878 0)
(-0.271323 -0.962488 0)
(-0.28226 -0.959338 -0)
(-0.287294 -0.957842 -0)
(-0.29311 -0.956079 -0)
(-0.292925 -0.956136 -0)
(-0.300619 -0.953744 -0)
(-0.302344 -0.953199 -0)
(-0.307909 -0.951416 -0)
(-0.316568 -0.94857 -0)
(-0.311135 -0.950366 -0)
(-0.324935 -0.945737 -0)
(-0.3205 -0.947249 -0)
(-0.32887 -0.944375 -0)
(-0.329303 -0.944224 -0)
(-0.329532 -0.944144 -0)
(-0.329393 -0.944193 -0)
(-0.348931 -0.937148 -0)
(-0.340383 -0.940287 -0)
(-0.340383 -0.940287 0)
(-0.348931 -0.937148 0)
(-0.329393 -0.944193 0)
(-0.329532 -0.944144 0)
(-0.329303 -0.944224 0)
(-0.32887 -0.944375 0)
(-0.3205 -0.947249 0)
(-0.324935 -0.945737 0)
(-0.311135 -0.950366 0)
(-0.316568 -0.94857 0)
(-0.307909 -0.951416 0)
(-0.302344 -0.953199 0)
(-0.300619 -0.953744 0)
(-0.292925 -0.956136 0)
(-0.29311 -0.956079 0)
(-0.287294 -0.957842 0)
(-0.28226 -0.959338 0)
(-0.271323 -0.962488 0)
(-0.346411 -0.938083 -0)
(-0.346411 -0.938083 0)
(0.0639002 0.997956 0)
(0.0629671 0.998016 -0)
(0.0706699 0.9975 -0)
(0.069978 0.997549 -0)
(0.0694471 0.997586 -0)
(0.0690643 0.997612 -0)
(0.068344 0.997662 -0)
(0.0783793 0.996924 -0)
(0.0719942 0.997405 -0)
(0.0702538 0.997529 -0)
(0.077006 0.997031 -0)
(0.0741932 0.997244 -0)
(0.0863039 0.996269 -0)
(0.0712798 0.997456 -0)
(0.0810892 0.996707 -0)
(0.0754085 0.997153 -0)
(0.0863572 0.996264 -0)
(0.0763397 0.997082 -0)
(0.0763397 0.997082 0)
(0.0863572 0.996264 0)
(0.0754085 0.997153 0)
(0.0810892 0.996707 0)
(0.0712798 0.997456 0)
(0.0863039 0.996269 0)
(0.0741932 0.997244 0)
(0.077006 0.997031 0)
(0.0702538 0.997529 0)
(0.0719942 0.997405 0)
(0.0783793 0.996924 0)
(0.068344 0.997662 0)
(0.0690643 0.997612 0)
(0.0694471 0.997586 0)
(0.069978 0.997549 0)
(0.0706699 0.9975 0)
(0.0629671 0.998016 0)
(0.0639002 0.997956 0)
(0.0825409 0.996588 -0)
(0.0825409 0.996588 0)
(0.0893581 0.996 -0)
(0.0893581 0.996 0)
(0.141614 0.989922 0)
(0.193206 0.981158 0)
(0.243344 0.96994 0)
(0.293651 0.955913 0)
(0.342295 0.939593 0)
(0.391097 0.920349 0)
(0.438667 0.898649 0)
(0.483949 0.875096 0)
(0.529381 0.848384 0)
(0.572493 0.819909 0)
(0.613988 0.789315 0)
(0.654747 0.755848 0)
(0.692875 0.721058 0)
(0.72943 0.684055 0)
(0.764037 0.645172 0)
(0.796189 0.605048 0)
(0.826939 0.562291 0)
(0.854689 0.51914 0)
(0.880692 0.47369 0)
(0.903976 0.427584 0)
(0.925218 0.379436 0)
(0.943472 0.331453 0)
(0.959475 0.281794 0)
(0.972791 0.231682 0)
(0.983405 0.181425 0)
(0.991608 0.12928 0)
(0.996977 0.0776955 0)
(0.999659 0.0261259 0)
(0.999659 0.0261259 -0)
(0.996977 0.0776955 -0)
(0.991608 0.12928 -0)
(0.983405 0.181425 -0)
(0.972791 0.231682 -0)
(0.959475 0.281794 -0)
(0.943472 0.331453 -0)
(0.925218 0.379436 -0)
(0.903976 0.427584 -0)
(0.880692 0.47369 -0)
(0.854689 0.51914 -0)
(0.826939 0.562291 -0)
(0.796189 0.605048 -0)
(0.764037 0.645172 -0)
(0.72943 0.684055 -0)
(0.692875 0.721058 -0)
(0.654747 0.755848 -0)
(0.613988 0.789315 -0)
(0.572493 0.819909 -0)
(0.529381 0.848384 -0)
(0.483949 0.875096 -0)
(0.438667 0.898649 -0)
(0.391097 0.920349 -0)
(0.342295 0.939593 -0)
(0.293651 0.955913 -0)
(0.243344 0.96994 -0)
(0.193206 0.981158 -0)
(0.141614 0.989922 -0)
(-0.248733 -0.968572 -0)
(-0.248733 -0.968572 0)
(-0.196897 -0.980424 0)
(-0.145397 -0.989373 0)
(-0.0926702 -0.995697 0)
(-0.039887 -0.999204 0)
(0.0128541 -0.999917 0)
(0.0655767 -0.997848 0)
(0.118372 -0.992969 0)
(0.170428 -0.98537 0)
(0.221943 -0.97506 0)
(0.273114 -0.961982 0)
(0.323927 -0.946082 0)
(0.37349 -0.927634 0)
(0.42133 -0.906907 0)
(0.469254 -0.883063 0)
(0.514894 -0.857254 0)
(0.559217 -0.829021 0)
(0.602594 -0.798048 0)
(0.643969 -0.765052 0)
(0.683041 -0.73038 0)
(0.720833 -0.693109 0)
(0.756625 -0.653849 0)
(0.789571 -0.61366 0)
(0.821291 -0.57051 0)
(0.850308 -0.526285 0)
(0.87673 -0.480984 0)
(0.900825 -0.434182 0)
(0.922676 -0.385576 0)
(0.941558 -0.336851 0)
(0.958216 -0.286045 0)
(0.971751 -0.236006 0)
(0.983071 -0.183227 0)
(0.991257 -0.131942 0)
(0.996865 -0.079127 0)
(0.999652 -0.0263778 0)
(0.999652 -0.0263778 0)
(0.996865 -0.079127 0)
(0.991257 -0.131942 0)
(0.983071 -0.183227 0)
(0.971751 -0.236006 0)
(0.958216 -0.286045 0)
(0.941558 -0.336851 0)
(0.922676 -0.385576 0)
(0.900825 -0.434182 0)
(0.87673 -0.480984 0)
(0.850308 -0.526285 0)
(0.821291 -0.57051 0)
(0.789571 -0.61366 0)
(0.756625 -0.653849 0)
(0.720833 -0.693109 0)
(0.683041 -0.73038 0)
(0.643969 -0.765052 0)
(0.602594 -0.798048 0)
(0.559217 -0.829021 0)
(0.514894 -0.857254 0)
(0.469254 -0.883063 0)
(0.42133 -0.906907 0)
(0.37349 -0.927634 0)
(0.323927 -0.946082 0)
(0.273114 -0.961982 0)
(0.221943 -0.97506 0)
(0.170428 -0.98537 0)
(0.118372 -0.992969 0)
(0.0655767 -0.997848 0)
(0.0128541 -0.999917 0)
(-0.039887 -0.999204 -0)
(-0.0926702 -0.995697 -0)
(-0.145397 -0.989373 -0)
(-0.196897 -0.980424 -0)
(-0.992545 0.121878 0)
(-0.992545 0.121878 0)
)

// normal volume types

210
(
0
0
0
0
0
0
0
0
0
0
0
0
0
0
0
0
0
0
0
0
0
0
0
0
0
0
0
0
0
0
0
0
0
0
0
0
0
0
0
0
0
0
0
0
0
0
0
0
0
0
0
0
0
0
0
0
0
0
0
0
0
0
0
0
0
0
0
0
0
0
0
0
0
0
0
0
0
0
0
0
0
0
0
0
0
0
0
0
0
0
0
0
0
0
0
0
0
0
0
0
0
0
0
0
0
0
0
0
0
0
0
0
0
0
0
0
0
0
0
0
0
0
0
0
0
0
0
0
0
0
0
0
0
0
0
0
0
0
0
0
0
0
0
0
0
0
0
0
0
0
0
0
0
0
0
0
0
0
0
0
0
0
0
0
0
0
0
0
0
0
0
0
0
0
0
0
0
0
0
0
0
0
0
0
0
0
0
0
0
0
0
0
0
0
0
0
0
0
0
0
0
0
0
0
0
0
0
0
0
0
)

// normalDirections

212
(
2(1 -1)
2(1 -1)
2(1 -1)
2(1 -1)
1(1)
1(1)
1(1)
1(1)
1(1)
1(1)
1(1)
1(1)
1(1)
1(1)
1(1)
1(1)
1(1)
1(1)
1(1)
1(1)
1(1)
1(1)
1(1)
1(1)
1(1)
1(1)
1(1)
1(1)
1(1)
1(1)
1(1)
1(1)
1(1)
1(1)
1(1)
1(1)
1(1)
1(1)
1(1)
1(1)
1(1)
1(1)
1(1)
1(1)
1(1)
1(1)
1(1)
1(1)
1(1)
1(1)
1(1)
1(1)
1(1)
1(1)
1(1)
1(1)
1(1)
1(1)
1(1)
1(1)
1(1)
1(1)
1(1)
1(1)
1(1)
1(1)
1(1)
1(1)
1(1)
1(1)
1(1)
1(1)
1(1)
1(1)
1(1)
1(1)
1(1)
1(1)
1(1)
1(1)
1(1)
1(1)
1(1)
1(1)
1(1)
1(1)
1(1)
1(1)
1(1)
1(1)
1(1)
1(1)
1(1)
1(1)
1(1)
1(1)
1(1)
1(1)
1(1)
1(1)
1(1)
1(1)
1(1)
1(1)
1(1)
1(1)
1(1)
1(1)
1(1)
1(1)
1(1)
1(1)
1(1)
1(1)
1(1)
1(1)
1(1)
1(1)
1(1)
1(1)
1(1)
1(1)
1(1)
1(1)
1(1)
1(1)
1(1)
1(1)
1(1)
1(1)
1(1)
1(1)
1(1)
1(1)
1(1)
1(1)
1(1)
1(1)
1(1)
1(1)
1(1)
1(1)
1(1)
1(1)
1(1)
1(1)
1(1)
1(1)
1(1)
1(1)
1(1)
1(1)
1(1)
1(1)
1(1)
1(1)
1(1)
1(1)
1(1)
1(1)
1(1)
1(1)
1(1)
1(1)
1(1)
1(1)
1(1)
1(1)
1(1)
1(1)
1(1)
1(1)
1(1)
1(1)
1(1)
1(1)
1(1)
1(1)
1(1)
1(1)
1(1)
1(1)
1(1)
1(1)
1(1)
1(1)
1(1)
1(1)
1(1)
1(1)
1(1)
1(1)
1(1)
1(1)
1(1)
1(1)
1(1)
1(1)
1(1)
1(1)
1(1)
1(1)
1(1)
1(1)
1(1)
1(1)
1(1)
1(1)
1(1)
1(1)
1(1)
1(1)
)

// edgeNormals

212
(
2(2 78)
2(3 40)
2(208 79)
2(209 41)
1(0)
1(1)
1(2)
1(3)
1(4)
1(5)
1(6)
1(7)
1(8)
1(9)
1(10)
1(11)
1(12)
1(13)
1(14)
1(15)
1(16)
1(17)
1(18)
1(19)
1(20)
1(21)
1(22)
1(23)
1(24)
1(25)
1(26)
1(27)
1(28)
1(29)
1(30)
1(31)
1(32)
1(33)
1(34)
1(35)
1(36)
1(37)
1(38)
1(39)
1(40)
1(41)
1(42)
1(43)
1(44)
1(45)
1(46)
1(47)
1(48)
1(49)
1(50)
1(51)
1(52)
1(53)
1(54)
1(55)
1(56)
1(57)
1(58)
1(59)
1(60)
1(61)
1(62)
1(63)
1(64)
1(65)
1(66)
1(67)
1(68)
1(69)
1(70)
1(71)
1(72)
1(73)
1(74)
1(75)
1(76)
1(77)
1(78)
1(79)
1(80)
1(81)
1(82)
1(83)
1(84)
1(85)
1(86)
1(87)
1(88)
1(89)
1(90)
1(91)
1(92)
1(93)
1(94)
1(95)
1(96)
1(97)
1(98)
1(99)
1(100)
1(101)
1(102)
1(103)
1(104)
1(105)
1(106)
1(107)
1(108)
1(109)
1(110)
1(111)
1(112)
1(113)
1(114)
1(115)
1(116)
1(117)
1(118)
1(119)
1(120)
1(121)
1(122)
1(123)
1(124)
1(125)
1(126)
1(127)
1(128)
1(129)
1(130)
1(131)
1(132)
1(133)
1(134)
1(135)
1(136)
1(137)
1(138)
1(139)
1(140)
1(141)
1(142)
1(143)
1(144)
1(145)
1(146)
1(147)
1(148)
1(149)
1(150)
1(151)
1(152)
1(153)
1(154)
1(155)
1(156)
1(157)
1(158)
1(159)
1(160)
1(161)
1(162)
1(163)
1(164)
1(165)
1(166)
1(167)
1(168)
1(169)
1(170)
1(171)
1(172)
1(173)
1(174)
1(175)
1(176)
1(177)
1(178)
1(179)
1(180)
1(181)
1(182)
1(183)
1(184)
1(185)
1(186)
1(187)
1(188)
1(189)
1(190)
1(191)
1(192)
1(193)
1(194)
1(195)
1(196)
1(197)
1(198)
1(199)
1(200)
1(201)
1(202)
1(203)
1(204)
1(205)
1(206)
1(207)
)

// featurePointNormals

4
(
2(209 41)
2(2 78)
2(208 79)
2(3 40)
)

// featurePointEdges

4
(
3(3 6 45)
3(0 6 82)
3(2 7 83)
3(1 7 44)
)

// regionEdges

208
(
4
5
6
7
8
9
10
11
12
13
14
15
16
17
18
19
20
21
22
23
24
25
26
27
28
29
30
31
32
33
34
35
36
37
38
39
40
41
42
43
44
45
46
47
48
49
50
51
52
53
54
55
56
57
58
59
60
61
62
63
64
65
66
67
68
69
70
71
72
73
74
75
76
77
78
79
80
81
82
83
84
85
86
87
88
89
90
91
92
93
94
95
96
97
98
99
100
101
102
103
104
105
106
107
108
109
110
111
112
113
114
115
116
117
118
119
120
121
122
123
124
125
126
127
128
129
130
131
132
133
134
135
136
137
138
139
140
141
142
143
144
145
146
147
148
149
150
151
152
153
154
155
156
157
158
159
160
161
162
163
164
165
166
167
168
169
170
171
172
173
174
175
176
177
178
179
180
181
182
183
184
185
186
187
188
189
190
191
192
193
194
195
196
197
198
199
200
201
202
203
204
205
206
207
208
209
210
211
)



// ************************************************************************* //
