/*--------------------------------*- C++ -*----------------------------------*\
  =========                 |
  \\      /  F ield         | OpenFOAM: The Open Source CFD Toolbox
   \\    /   O peration     | Website:  https://openfoam.org
    \\  /    A nd           | Version:  7
     \\/     M anipulation  |
\*---------------------------------------------------------------------------*/
FoamFile
{
    version     2.0;
    format      ascii;
    class       polyBoundaryMesh;
    location    "constant/polyMesh";
    object      boundary;
}
// * * * * * * * * * * * * * * * * * * * * * * * * * * * * * * * * * * * * * //

5
(
    topAndBottom
    {
        type            patch;
        nFaces          480;
        startFace       57240;
    }
    inlet
    {
        type            patch;
        nFaces          120;
        startFace       57720;
    }
    outlet
    {
        type            patch;
        nFaces          120;
        startFace       57840;
    }
    symFront
    {
        type            symmetryPlane;
        inGroups        List<word> 1(symmetryPlane);
        nFaces          28800;
        startFace       57960;
    }
    symBack
    {
        type            symmetryPlane;
        inGroups        List<word> 1(symmetryPlane);
        nFaces          28800;
        startFace       86760;
    }
)

// ************************************************************************* //
