/*--------------------------------*- C++ -*----------------------------------*\
  =========                 |
  \\      /  F ield         | OpenFOAM: The Open Source CFD Toolbox
   \\    /   O peration     | Website:  https://openfoam.org
    \\  /    A nd           | Version:  7
     \\/     M anipulation  |
\*---------------------------------------------------------------------------*/
FoamFile
{
    version     2.0;
    format      ascii;
    class       featureEdgeMesh;
    location    "constant/triSurface";
    object      wing_main.eMesh;
}
// * * * * * * * * * * * * * * * * * * * * * * * * * * * * * * * * * * * * * //


// points:

464
(
(0.72 -0.001814 -0.5)
(0.72 -0.064547 -0.5)
(0.72 -0.064547 0.5)
(0.72 -0.001814 0.5)
(0.703296 0.005612 0.5)
(0.682345 0.010854 0.5)
(0.660295 0.016155 0.5)
(0.637103 0.021555 0.5)
(0.606829 0.028261 0.5)
(0.578018 0.034398 0.5)
(0.550557 0.039787 0.5)
(0.524436 0.044736 0.5)
(0.499549 0.049042 0.5)
(0.475869 0.05291 0.5)
(0.45334 0.056373 0.5)
(0.431911 0.059484 0.5)
(0.411518 0.062188 0.5)
(0.392118 0.064545 0.5)
(0.373644 0.066405 0.5)
(0.356081 0.06802 0.5)
(0.339375 0.069296 0.5)
(0.323487 0.070281 0.5)
(0.308383 0.071003 0.5)
(0.294024 0.07147 0.5)
(0.28038 0.071781 0.5)
(0.267416 0.071919 0.5)
(0.255099 0.071822 0.5)
(0.243399 0.071651 0.5)
(0.232288 0.071321 0.5)
(0.221735 0.070925 0.5)
(0.211715 0.070434 0.5)
(0.202202 0.069851 0.5)
(0.19317 0.069227 0.5)
(0.184599 0.068511 0.5)
(0.176464 0.067741 0.5)
(0.168741 0.066947 0.5)
(0.161418 0.066075 0.5)
(0.154469 0.065185 0.5)
(0.145493 0.064031 0.5)
(0.136995 0.062746 0.5)
(0.128932 0.061438 0.5)
(0.121282 0.060152 0.5)
(0.114049 0.058742 0.5)
(0.107186 0.057348 0.5)
(0.100675 0.055987 0.5)
(0.094515 0.054579 0.5)
(0.088686 0.053143 0.5)
(0.083166 0.051708 0.5)
(0.077934 0.050301 0.5)
(0.072975 0.048922 0.5)
(0.06828 0.047556 0.5)
(0.06385 0.04616 0.5)
(0.059666 0.044758 0.5)
(0.055694 0.043413 0.5)
(0.051936 0.042093 0.5)
(0.048405 0.040736 0.5)
(0.045078 0.039376 0.5)
(0.041922 0.038072 0.5)
(0.038929 0.036821 0.5)
(0.036102 0.035593 0.5)
(0.033443 0.034368 0.5)
(0.03095 0.033136 0.5)
(0.028612 0.031905 0.5)
(0.026408 0.030702 0.5)
(0.024325 0.02954 0.5)
(0.022367 0.028401 0.5)
(0.020535 0.027272 0.5)
(0.01882 0.026158 0.5)
(0.017206 0.025078 0.5)
(0.015681 0.024039 0.5)
(0.014247 0.023031 0.5)
(0.012905 0.022043 0.5)
(0.011657 0.02107 0.5)
(0.010504 0.020105 0.5)
(0.009449 0.019144 0.5)
(0.00848 0.018196 0.5)
(0.007582 0.01727 0.5)
(0.006742 0.016378 0.5)
(0.005957 0.015519 0.5)
(0.005232 0.014685 0.5)
(0.004572 0.01387 0.5)
(0.003975 0.013072 0.5)
(0.003435 0.012294 0.5)
(0.002944 0.011538 0.5)
(0.002497 0.010807 0.5)
(0.002091 0.010101 0.5)
(0.001729 0.009418 0.5)
(0.001415 0.008757 0.5)
(0.001147 0.008115 0.5)
(0.000923 0.007494 0.5)
(0.000734 0.006894 0.5)
(0.000576 0.006317 0.5)
(0.000441 0.005764 0.5)
(0.000327 0.005235 0.5)
(0.000229 0.004729 0.5)
(0.000148 0.004247 0.5)
(8.1e-05 0.003787 0.5)
(2.8e-05 0.003348 0.5)
(-1.3e-05 0.002931 0.5)
(-4.3e-05 0.002535 0.5)
(-6.2e-05 0.002158 0.5)
(-7.3e-05 0.001799 0.5)
(-7.6e-05 0.001459 0.5)
(-7.2e-05 0.001136 0.5)
(-6.1e-05 0.000829 0.5)
(-4.5e-05 0.000538 0.5)
(-2.5e-05 0.000262 0.5)
(0 0 0.5)
(3.1e-05 -0.000269 0.5)
(6.9e-05 -0.000552 0.5)
(0.000115 -0.000847 0.5)
(0.00017 -0.001157 0.5)
(0.000235 -0.001481 0.5)
(0.000311 -0.001819 0.5)
(0.000399 -0.002173 0.5)
(0.000501 -0.002543 0.5)
(0.000617 -0.002928 0.5)
(0.00075 -0.003329 0.5)
(0.0009 -0.003747 0.5)
(0.00107 -0.004181 0.5)
(0.00126 -0.004632 0.5)
(0.001473 -0.005098 0.5)
(0.00171 -0.005581 0.5)
(0.001974 -0.006079 0.5)
(0.002267 -0.006592 0.5)
(0.00259 -0.007122 0.5)
(0.002946 -0.007667 0.5)
(0.003338 -0.008229 0.5)
(0.003769 -0.008805 0.5)
(0.004241 -0.009394 0.5)
(0.004761 -0.009992 0.5)
(0.005331 -0.010597 0.5)
(0.005955 -0.011208 0.5)
(0.006631 -0.011827 0.5)
(0.007359 -0.012459 0.5)
(0.008135 -0.013108 0.5)
(0.008963 -0.013773 0.5)
(0.009851 -0.014445 0.5)
(0.010809 -0.015116 0.5)
(0.011842 -0.01578 0.5)
(0.012948 -0.016444 0.5)
(0.014126 -0.017116 0.5)
(0.015372 -0.017802 0.5)
(0.016691 -0.0185 0.5)
(0.018092 -0.019204 0.5)
(0.01958 -0.019908 0.5)
(0.021158 -0.020615 0.5)
(0.022826 -0.021329 0.5)
(0.02459 -0.022052 0.5)
(0.026451 -0.022787 0.5)
(0.028415 -0.023533 0.5)
(0.030491 -0.024281 0.5)
(0.032687 -0.025015 0.5)
(0.035013 -0.025726 0.5)
(0.037467 -0.026433 0.5)
(0.04005 -0.027157 0.5)
(0.04277 -0.02788 0.5)
(0.045643 -0.028574 0.5)
(0.048673 -0.02925 0.5)
(0.051855 -0.029957 0.5)
(0.055197 -0.030697 0.5)
(0.058718 -0.031408 0.5)
(0.062431 -0.032078 0.5)
(0.066331 -0.032774 0.5)
(0.070425 -0.033514 0.5)
(0.074733 -0.034226 0.5)
(0.079271 -0.03489 0.5)
(0.084042 -0.035549 0.5)
(0.089054 -0.03621 0.5)
(0.094323 -0.036863 0.5)
(0.09986 -0.037504 0.5)
(0.105679 -0.038136 0.5)
(0.111793 -0.038758 0.5)
(0.118218 -0.039357 0.5)
(0.124968 -0.039943 0.5)
(0.132055 -0.040578 0.5)
(0.1395 -0.041177 0.5)
(0.147326 -0.041699 0.5)
(0.15451 -0.042197 0.5)
(0.162054 -0.042698 0.5)
(0.16998 -0.04316 0.5)
(0.178305 -0.043598 0.5)
(0.187045 -0.04407 0.5)
(0.196223 -0.044535 0.5)
(0.205864 -0.044972 0.5)
(0.215985 -0.045448 0.5)
(0.226615 -0.04588 0.5)
(0.237778 -0.046318 0.5)
(0.249497 -0.046816 0.5)
(0.261804 -0.047273 0.5)
(0.274727 -0.047764 0.5)
(0.288294 -0.048318 0.5)
(0.302542 -0.048826 0.5)
(0.317502 -0.049384 0.5)
(0.33321 -0.049979 0.5)
(0.349702 -0.050606 0.5)
(0.367015 -0.051387 0.5)
(0.385192 -0.052228 0.5)
(0.404277 -0.053125 0.5)
(0.424316 -0.054082 0.5)
(0.445357 -0.055098 0.5)
(0.467451 -0.056087 0.5)
(0.490649 -0.057182 0.5)
(0.51501 -0.058276 0.5)
(0.540585 -0.05949 0.5)
(0.567439 -0.060782 0.5)
(0.595635 -0.06213 0.5)
(0.625242 -0.063535 0.5)
(0.649433 -0.064833 0.5)
(0.672415 -0.066049 0.5)
(0.694245 -0.067267 0.5)
(0.714979 -0.068494 0.5)
(0.714979 -0.068494 -0.5)
(0.694245 -0.067267 -0.5)
(0.672415 -0.066049 -0.5)
(0.649433 -0.064833 -0.5)
(0.625242 -0.063535 -0.5)
(0.595635 -0.06213 -0.5)
(0.567439 -0.060782 -0.5)
(0.540585 -0.05949 -0.5)
(0.51501 -0.058276 -0.5)
(0.490649 -0.057182 -0.5)
(0.467451 -0.056087 -0.5)
(0.445357 -0.055098 -0.5)
(0.424316 -0.054082 -0.5)
(0.404277 -0.053125 -0.5)
(0.385192 -0.052228 -0.5)
(0.367015 -0.051387 -0.5)
(0.349702 -0.050606 -0.5)
(0.33321 -0.049979 -0.5)
(0.317502 -0.049384 -0.5)
(0.302542 -0.048826 -0.5)
(0.288294 -0.048318 -0.5)
(0.274727 -0.047764 -0.5)
(0.261804 -0.047273 -0.5)
(0.249497 -0.046816 -0.5)
(0.237778 -0.046318 -0.5)
(0.226615 -0.04588 -0.5)
(0.215985 -0.045448 -0.5)
(0.205864 -0.044972 -0.5)
(0.196223 -0.044535 -0.5)
(0.187045 -0.04407 -0.5)
(0.178305 -0.043598 -0.5)
(0.16998 -0.04316 -0.5)
(0.162054 -0.042698 -0.5)
(0.15451 -0.042197 -0.5)
(0.147326 -0.041699 -0.5)
(0.1395 -0.041177 -0.5)
(0.132055 -0.040578 -0.5)
(0.124968 -0.039943 -0.5)
(0.118218 -0.039357 -0.5)
(0.111793 -0.038758 -0.5)
(0.105679 -0.038136 -0.5)
(0.09986 -0.037504 -0.5)
(0.094323 -0.036863 -0.5)
(0.089054 -0.03621 -0.5)
(0.084042 -0.035549 -0.5)
(0.079271 -0.03489 -0.5)
(0.074733 -0.034226 -0.5)
(0.070425 -0.033514 -0.5)
(0.066331 -0.032774 -0.5)
(0.062431 -0.032078 -0.5)
(0.058718 -0.031408 -0.5)
(0.055197 -0.030697 -0.5)
(0.051855 -0.029957 -0.5)
(0.048673 -0.02925 -0.5)
(0.045643 -0.028574 -0.5)
(0.04277 -0.02788 -0.5)
(0.04005 -0.027157 -0.5)
(0.037467 -0.026433 -0.5)
(0.035013 -0.025726 -0.5)
(0.032687 -0.025015 -0.5)
(0.030491 -0.024281 -0.5)
(0.028415 -0.023533 -0.5)
(0.026451 -0.022787 -0.5)
(0.02459 -0.022052 -0.5)
(0.022826 -0.021329 -0.5)
(0.021158 -0.020615 -0.5)
(0.01958 -0.019908 -0.5)
(0.018092 -0.019204 -0.5)
(0.016691 -0.0185 -0.5)
(0.015372 -0.017802 -0.5)
(0.014126 -0.017116 -0.5)
(0.012948 -0.016444 -0.5)
(0.011842 -0.01578 -0.5)
(0.010809 -0.015116 -0.5)
(0.009851 -0.014445 -0.5)
(0.008963 -0.013773 -0.5)
(0.008135 -0.013108 -0.5)
(0.007359 -0.012459 -0.5)
(0.006631 -0.011827 -0.5)
(0.005955 -0.011208 -0.5)
(0.005331 -0.010597 -0.5)
(0.004761 -0.009992 -0.5)
(0.004241 -0.009394 -0.5)
(0.003769 -0.008805 -0.5)
(0.003338 -0.008229 -0.5)
(0.002946 -0.007667 -0.5)
(0.00259 -0.007122 -0.5)
(0.002267 -0.006592 -0.5)
(0.001974 -0.006079 -0.5)
(0.00171 -0.005581 -0.5)
(0.001473 -0.005098 -0.5)
(0.00126 -0.004632 -0.5)
(0.00107 -0.004181 -0.5)
(0.0009 -0.003747 -0.5)
(0.00075 -0.003329 -0.5)
(0.000617 -0.002928 -0.5)
(0.000501 -0.002543 -0.5)
(0.000399 -0.002173 -0.5)
(0.000311 -0.001819 -0.5)
(0.000235 -0.001481 -0.5)
(0.00017 -0.001157 -0.5)
(0.000115 -0.000847 -0.5)
(6.9e-05 -0.000552 -0.5)
(3.1e-05 -0.000269 -0.5)
(0 0 -0.5)
(-2.5e-05 0.000262 -0.5)
(-4.5e-05 0.000538 -0.5)
(-6.1e-05 0.000829 -0.5)
(-7.2e-05 0.001136 -0.5)
(-7.6e-05 0.001459 -0.5)
(-7.3e-05 0.001799 -0.5)
(-6.2e-05 0.002158 -0.5)
(-4.3e-05 0.002535 -0.5)
(-1.3e-05 0.002931 -0.5)
(2.8e-05 0.003348 -0.5)
(8.1e-05 0.003787 -0.5)
(0.000148 0.004247 -0.5)
(0.000229 0.004729 -0.5)
(0.000327 0.005235 -0.5)
(0.000441 0.005764 -0.5)
(0.000576 0.006317 -0.5)
(0.000734 0.006894 -0.5)
(0.000923 0.007494 -0.5)
(0.001147 0.008115 -0.5)
(0.001415 0.008757 -0.5)
(0.001729 0.009418 -0.5)
(0.002091 0.010101 -0.5)
(0.002497 0.010807 -0.5)
(0.002944 0.011538 -0.5)
(0.003435 0.012294 -0.5)
(0.003975 0.013072 -0.5)
(0.004572 0.01387 -0.5)
(0.005232 0.014685 -0.5)
(0.005957 0.015519 -0.5)
(0.006742 0.016378 -0.5)
(0.007582 0.01727 -0.5)
(0.00848 0.018196 -0.5)
(0.009449 0.019144 -0.5)
(0.010504 0.020105 -0.5)
(0.011657 0.02107 -0.5)
(0.012905 0.022043 -0.5)
(0.014247 0.023031 -0.5)
(0.015681 0.024039 -0.5)
(0.017206 0.025078 -0.5)
(0.01882 0.026158 -0.5)
(0.020535 0.027272 -0.5)
(0.022367 0.028401 -0.5)
(0.024325 0.02954 -0.5)
(0.026408 0.030702 -0.5)
(0.028612 0.031905 -0.5)
(0.03095 0.033136 -0.5)
(0.033443 0.034368 -0.5)
(0.036102 0.035593 -0.5)
(0.038929 0.036821 -0.5)
(0.041922 0.038072 -0.5)
(0.045078 0.039376 -0.5)
(0.048405 0.040736 -0.5)
(0.051936 0.042093 -0.5)
(0.055694 0.043413 -0.5)
(0.059666 0.044758 -0.5)
(0.06385 0.04616 -0.5)
(0.06828 0.047556 -0.5)
(0.072975 0.048922 -0.5)
(0.077934 0.050301 -0.5)
(0.083166 0.051708 -0.5)
(0.088686 0.053143 -0.5)
(0.094515 0.054579 -0.5)
(0.100675 0.055987 -0.5)
(0.107186 0.057348 -0.5)
(0.114049 0.058742 -0.5)
(0.121282 0.060152 -0.5)
(0.128932 0.061438 -0.5)
(0.136995 0.062746 -0.5)
(0.145493 0.064031 -0.5)
(0.154469 0.065185 -0.5)
(0.161418 0.066075 -0.5)
(0.168741 0.066947 -0.5)
(0.176464 0.067741 -0.5)
(0.184599 0.068511 -0.5)
(0.19317 0.069227 -0.5)
(0.202202 0.069851 -0.5)
(0.211715 0.070434 -0.5)
(0.221735 0.070925 -0.5)
(0.232288 0.071321 -0.5)
(0.243399 0.071651 -0.5)
(0.255099 0.071822 -0.5)
(0.267416 0.071919 -0.5)
(0.28038 0.071781 -0.5)
(0.294024 0.07147 -0.5)
(0.308383 0.071003 -0.5)
(0.323487 0.070281 -0.5)
(0.339375 0.069296 -0.5)
(0.356081 0.06802 -0.5)
(0.373644 0.066405 -0.5)
(0.392118 0.064545 -0.5)
(0.411518 0.062188 -0.5)
(0.431911 0.059484 -0.5)
(0.45334 0.056373 -0.5)
(0.475869 0.05291 -0.5)
(0.499549 0.049042 -0.5)
(0.524436 0.044736 -0.5)
(0.550557 0.039787 -0.5)
(0.578018 0.034398 -0.5)
(0.606829 0.028261 -0.5)
(0.637103 0.021555 -0.5)
(0.660295 0.016155 -0.5)
(0.682345 0.010854 -0.5)
(0.703296 0.005612 -0.5)
(0.715765 -0.06854 -0.5)
(0.715765 -0.06854 0.5)
(0.717001 0.002059 0.5)
(0.717001 0.002059 -0.5)
(0.716308 -0.068535 0.5)
(0.716308 -0.068535 -0.5)
(0.716845 -0.068456 -0.5)
(0.717367 -0.068306 -0.5)
(0.717863 -0.068086 -0.5)
(0.718325 -0.067802 -0.5)
(0.718744 -0.067457 -0.5)
(0.719113 -0.067059 -0.5)
(0.719424 -0.066614 -0.5)
(0.719673 -0.066131 -0.5)
(0.719853 -0.06562 -0.5)
(0.719963 -0.065088 -0.5)
(0.719963 -0.065088 0.5)
(0.719853 -0.06562 0.5)
(0.719673 -0.066131 0.5)
(0.719424 -0.066614 0.5)
(0.719113 -0.067059 0.5)
(0.718744 -0.067457 0.5)
(0.718325 -0.067802 0.5)
(0.717863 -0.068086 0.5)
(0.717367 -0.068306 0.5)
(0.716845 -0.068456 0.5)
(0.717501 0.001894 -0.5)
(0.717501 0.001894 0.5)
(0.717975 0.001664 0.5)
(0.718415 0.001375 0.5)
(0.718813 0.00103 0.5)
(0.719163 0.000635 0.5)
(0.719457 0.000198 0.5)
(0.719691 -0.000273 0.5)
(0.719862 -0.000772 0.5)
(0.719965 -0.001288 0.5)
(0.719965 -0.001288 -0.5)
(0.719862 -0.000772 -0.5)
(0.719691 -0.000273 -0.5)
(0.719457 0.000198 -0.5)
(0.719163 0.000635 -0.5)
(0.718813 0.00103 -0.5)
(0.718415 0.001375 -0.5)
(0.717975 0.001664 -0.5)
)


// edges:

464
(
(0 1)
(2 3)
(4 5)
(5 6)
(6 7)
(7 8)
(8 9)
(9 10)
(10 11)
(11 12)
(12 13)
(13 14)
(14 15)
(15 16)
(16 17)
(17 18)
(18 19)
(19 20)
(20 21)
(21 22)
(22 23)
(23 24)
(24 25)
(25 26)
(26 27)
(27 28)
(28 29)
(29 30)
(30 31)
(31 32)
(32 33)
(33 34)
(34 35)
(35 36)
(36 37)
(37 38)
(38 39)
(39 40)
(40 41)
(41 42)
(42 43)
(43 44)
(44 45)
(45 46)
(46 47)
(47 48)
(48 49)
(49 50)
(50 51)
(51 52)
(52 53)
(53 54)
(54 55)
(55 56)
(56 57)
(57 58)
(58 59)
(59 60)
(60 61)
(61 62)
(62 63)
(63 64)
(64 65)
(65 66)
(66 67)
(67 68)
(68 69)
(69 70)
(70 71)
(71 72)
(72 73)
(73 74)
(74 75)
(75 76)
(76 77)
(77 78)
(78 79)
(79 80)
(80 81)
(81 82)
(82 83)
(83 84)
(84 85)
(85 86)
(86 87)
(87 88)
(88 89)
(89 90)
(90 91)
(91 92)
(92 93)
(93 94)
(94 95)
(95 96)
(96 97)
(97 98)
(98 99)
(99 100)
(100 101)
(101 102)
(102 103)
(103 104)
(104 105)
(105 106)
(106 107)
(107 108)
(108 109)
(109 110)
(110 111)
(111 112)
(112 113)
(113 114)
(114 115)
(115 116)
(116 117)
(117 118)
(118 119)
(119 120)
(120 121)
(121 122)
(122 123)
(123 124)
(124 125)
(125 126)
(126 127)
(127 128)
(128 129)
(129 130)
(130 131)
(131 132)
(132 133)
(133 134)
(134 135)
(135 136)
(136 137)
(137 138)
(138 139)
(139 140)
(140 141)
(141 142)
(142 143)
(143 144)
(144 145)
(145 146)
(146 147)
(147 148)
(148 149)
(149 150)
(150 151)
(151 152)
(152 153)
(153 154)
(154 155)
(155 156)
(156 157)
(157 158)
(158 159)
(159 160)
(160 161)
(161 162)
(162 163)
(163 164)
(164 165)
(165 166)
(166 167)
(167 168)
(168 169)
(169 170)
(170 171)
(171 172)
(172 173)
(173 174)
(174 175)
(175 176)
(176 177)
(177 178)
(178 179)
(179 180)
(180 181)
(181 182)
(182 183)
(183 184)
(184 185)
(185 186)
(186 187)
(187 188)
(188 189)
(189 190)
(190 191)
(191 192)
(192 193)
(193 194)
(194 195)
(195 196)
(196 197)
(197 198)
(198 199)
(199 200)
(200 201)
(201 202)
(202 203)
(203 204)
(204 205)
(205 206)
(206 207)
(207 208)
(208 209)
(209 210)
(210 211)
(212 213)
(213 214)
(214 215)
(215 216)
(216 217)
(217 218)
(218 219)
(219 220)
(220 221)
(221 222)
(222 223)
(223 224)
(224 225)
(225 226)
(226 227)
(227 228)
(228 229)
(229 230)
(230 231)
(231 232)
(232 233)
(233 234)
(234 235)
(235 236)
(236 237)
(237 238)
(238 239)
(239 240)
(240 241)
(241 242)
(242 243)
(243 244)
(244 245)
(245 246)
(246 247)
(247 248)
(248 249)
(249 250)
(250 251)
(251 252)
(252 253)
(253 254)
(254 255)
(255 256)
(256 257)
(257 258)
(258 259)
(259 260)
(260 261)
(261 262)
(262 263)
(263 264)
(264 265)
(265 266)
(266 267)
(267 268)
(268 269)
(269 270)
(270 271)
(271 272)
(272 273)
(273 274)
(274 275)
(275 276)
(276 277)
(277 278)
(278 279)
(279 280)
(280 281)
(281 282)
(282 283)
(283 284)
(284 285)
(285 286)
(286 287)
(287 288)
(288 289)
(289 290)
(290 291)
(291 292)
(292 293)
(293 294)
(294 295)
(295 296)
(296 297)
(297 298)
(298 299)
(299 300)
(300 301)
(301 302)
(302 303)
(303 304)
(304 305)
(305 306)
(306 307)
(307 308)
(308 309)
(309 310)
(310 311)
(311 312)
(312 313)
(313 314)
(314 315)
(315 316)
(316 317)
(317 318)
(318 319)
(319 320)
(320 321)
(321 322)
(322 323)
(323 324)
(324 325)
(325 326)
(326 327)
(327 328)
(328 329)
(329 330)
(330 331)
(331 332)
(332 333)
(333 334)
(334 335)
(335 336)
(336 337)
(337 338)
(338 339)
(339 340)
(340 341)
(341 342)
(342 343)
(343 344)
(344 345)
(345 346)
(346 347)
(347 348)
(348 349)
(349 350)
(350 351)
(351 352)
(352 353)
(353 354)
(354 355)
(355 356)
(356 357)
(357 358)
(358 359)
(359 360)
(360 361)
(361 362)
(362 363)
(363 364)
(364 365)
(365 366)
(366 367)
(367 368)
(368 369)
(369 370)
(370 371)
(371 372)
(372 373)
(373 374)
(374 375)
(375 376)
(376 377)
(377 378)
(378 379)
(379 380)
(380 381)
(381 382)
(382 383)
(383 384)
(384 385)
(385 386)
(386 387)
(387 388)
(388 389)
(389 390)
(390 391)
(391 392)
(392 393)
(393 394)
(394 395)
(395 396)
(396 397)
(397 398)
(398 399)
(399 400)
(400 401)
(401 402)
(402 403)
(403 404)
(404 405)
(405 406)
(406 407)
(407 408)
(408 409)
(409 410)
(410 411)
(411 412)
(412 413)
(413 414)
(414 415)
(415 416)
(416 417)
(417 418)
(418 419)
(420 212)
(211 421)
(422 4)
(419 423)
(421 424)
(425 420)
(426 425)
(427 426)
(428 427)
(429 428)
(430 429)
(431 430)
(432 431)
(433 432)
(434 433)
(435 434)
(1 435)
(436 2)
(437 436)
(438 437)
(439 438)
(440 439)
(441 440)
(442 441)
(443 442)
(444 443)
(445 444)
(424 445)
(423 446)
(447 422)
(448 447)
(449 448)
(450 449)
(451 450)
(452 451)
(453 452)
(454 453)
(455 454)
(3 455)
(456 0)
(457 456)
(458 457)
(459 458)
(460 459)
(461 460)
(462 461)
(463 462)
(446 463)
)

// * * * * * * * * * * * * * * * * * * * * * * * * * * * * * * * * * * * * * //


// ************************************************************************* //
