/*--------------------------------*- C++ -*----------------------------------*\
  =========                 |
  \\      /  F ield         | OpenFOAM: The Open Source CFD Toolbox
   \\    /   O peration     | Website:  https://openfoam.org
    \\  /    A nd           | Version:  7
     \\/     M anipulation  |
\*---------------------------------------------------------------------------*/
FoamFile
{
    version     2.0;
    format      ascii;
    class       featureEdgeMesh;
    location    "constant/triSurface";
    object      flap.eMesh;
}
// * * * * * * * * * * * * * * * * * * * * * * * * * * * * * * * * * * * * * //


// points:

210
(
(0.977651 -0.079072 -0.5)
(0.976705 -0.086776 -0.5)
(0.976705 -0.086776 0.5)
(0.977651 -0.079072 0.5)
(0.75 -0.044255 -0.5)
(0.75 -0.043593 -0.5)
(0.75 -0.043593 0.5)
(0.75 -0.044255 0.5)
(0.785675 -0.016666 -0.5)
(0.793536 -0.018882 -0.5)
(0.808997 -0.023431 -0.5)
(0.8237 -0.027841 -0.5)
(0.837677 -0.032126 -0.5)
(0.850988 -0.036204 -0.5)
(0.863634 -0.04019 -0.5)
(0.875671 -0.044008 -0.5)
(0.887113 -0.047711 -0.5)
(0.897978 -0.051337 -0.5)
(0.908345 -0.054731 -0.5)
(0.918171 -0.058107 -0.5)
(0.927543 -0.061278 -0.5)
(0.936442 -0.064377 -0.5)
(0.944915 -0.067332 -0.5)
(0.952986 -0.070149 -0.5)
(0.960671 -0.07283 -0.5)
(0.967936 -0.075535 -0.5)
(0.974878 -0.078048 -0.5)
(0.974878 -0.078048 0.5)
(0.967936 -0.075535 0.5)
(0.960671 -0.07283 0.5)
(0.952986 -0.070149 0.5)
(0.944915 -0.067332 0.5)
(0.936442 -0.064377 0.5)
(0.927543 -0.061278 0.5)
(0.918171 -0.058107 0.5)
(0.908345 -0.054731 0.5)
(0.897978 -0.051337 0.5)
(0.887113 -0.047711 0.5)
(0.875671 -0.044008 0.5)
(0.863634 -0.04019 0.5)
(0.850988 -0.036204 0.5)
(0.837677 -0.032126 0.5)
(0.8237 -0.027841 0.5)
(0.808997 -0.023431 0.5)
(0.793536 -0.018882 0.5)
(0.785675 -0.016666 0.5)
(0.776208 -0.072197 0.5)
(0.788046 -0.072955 0.5)
(0.804086 -0.073967 0.5)
(0.819316 -0.075046 0.5)
(0.833785 -0.076061 0.5)
(0.847532 -0.077018 0.5)
(0.86059 -0.077922 0.5)
(0.872998 -0.078772 0.5)
(0.884776 -0.079698 0.5)
(0.89597 -0.080506 0.5)
(0.906605 -0.081255 0.5)
(0.916704 -0.082035 0.5)
(0.926301 -0.082749 0.5)
(0.935409 -0.083538 0.5)
(0.944071 -0.084157 0.5)
(0.952294 -0.084826 0.5)
(0.960109 -0.085417 0.5)
(0.967527 -0.08606 0.5)
(0.97458 -0.0866 0.5)
(0.97458 -0.0866 -0.5)
(0.967527 -0.08606 -0.5)
(0.960109 -0.085417 -0.5)
(0.952294 -0.084826 -0.5)
(0.944071 -0.084157 -0.5)
(0.935409 -0.083538 -0.5)
(0.926301 -0.082749 -0.5)
(0.916704 -0.082035 -0.5)
(0.906605 -0.081255 -0.5)
(0.89597 -0.080506 -0.5)
(0.884776 -0.079698 -0.5)
(0.872998 -0.078772 -0.5)
(0.86059 -0.077922 -0.5)
(0.847532 -0.077018 -0.5)
(0.833785 -0.076061 -0.5)
(0.819316 -0.075046 -0.5)
(0.804086 -0.073967 -0.5)
(0.788046 -0.072955 -0.5)
(0.776208 -0.072197 -0.5)
(0.774759 -0.072067 -0.5)
(0.774759 -0.072067 0.5)
(0.773319 -0.071861 0.5)
(0.771892 -0.07158 0.5)
(0.770481 -0.071226 0.5)
(0.769091 -0.070799 0.5)
(0.767724 -0.070301 0.5)
(0.766385 -0.069732 0.5)
(0.765078 -0.069094 0.5)
(0.763805 -0.06839 0.5)
(0.762571 -0.06762 0.5)
(0.761378 -0.066787 0.5)
(0.76023 -0.065894 0.5)
(0.759131 -0.064942 0.5)
(0.758082 -0.063934 0.5)
(0.757087 -0.062873 0.5)
(0.756148 -0.061761 0.5)
(0.755268 -0.060603 0.5)
(0.75445 -0.0594 0.5)
(0.753695 -0.058157 0.5)
(0.753006 -0.056876 0.5)
(0.752384 -0.055561 0.5)
(0.751832 -0.054215 0.5)
(0.75135 -0.052843 0.5)
(0.75094 -0.051447 0.5)
(0.750603 -0.050032 0.5)
(0.750339 -0.048601 0.5)
(0.750151 -0.047159 0.5)
(0.750038 -0.045709 0.5)
(0.750038 -0.045709 -0.5)
(0.750151 -0.047159 -0.5)
(0.750339 -0.048601 -0.5)
(0.750603 -0.050032 -0.5)
(0.75094 -0.051447 -0.5)
(0.75135 -0.052843 -0.5)
(0.751832 -0.054215 -0.5)
(0.752384 -0.055561 -0.5)
(0.753006 -0.056876 -0.5)
(0.753695 -0.058157 -0.5)
(0.75445 -0.0594 -0.5)
(0.755268 -0.060603 -0.5)
(0.756148 -0.061761 -0.5)
(0.757087 -0.062873 -0.5)
(0.758082 -0.063934 -0.5)
(0.759131 -0.064942 -0.5)
(0.76023 -0.065894 -0.5)
(0.761378 -0.066787 -0.5)
(0.762571 -0.06762 -0.5)
(0.763805 -0.06839 -0.5)
(0.765078 -0.069094 -0.5)
(0.766385 -0.069732 -0.5)
(0.767724 -0.070301 -0.5)
(0.769091 -0.070799 -0.5)
(0.770481 -0.071226 -0.5)
(0.771892 -0.07158 -0.5)
(0.773319 -0.071861 -0.5)
(0.784242 -0.016298 0.5)
(0.784242 -0.016298 -0.5)
(0.782793 -0.016007 -0.5)
(0.78133 -0.015792 -0.5)
(0.779858 -0.015655 -0.5)
(0.77838 -0.015596 -0.5)
(0.776902 -0.015615 -0.5)
(0.775426 -0.015712 -0.5)
(0.773958 -0.015887 -0.5)
(0.772501 -0.016139 -0.5)
(0.77106 -0.016467 -0.5)
(0.769637 -0.016871 -0.5)
(0.768238 -0.01735 -0.5)
(0.766867 -0.017902 -0.5)
(0.765526 -0.018525 -0.5)
(0.76422 -0.019219 -0.5)
(0.762953 -0.01998 -0.5)
(0.761727 -0.020807 -0.5)
(0.760547 -0.021698 -0.5)
(0.759416 -0.02265 -0.5)
(0.758336 -0.02366 -0.5)
(0.757311 -0.024726 -0.5)
(0.756344 -0.025845 -0.5)
(0.755437 -0.027012 -0.5)
(0.754593 -0.028227 -0.5)
(0.753815 -0.029484 -0.5)
(0.753104 -0.03078 -0.5)
(0.752462 -0.032112 -0.5)
(0.751892 -0.033476 -0.5)
(0.751394 -0.034868 -0.5)
(0.750971 -0.036285 -0.5)
(0.750622 -0.037722 -0.5)
(0.750351 -0.039176 -0.5)
(0.750156 -0.040641 -0.5)
(0.750039 -0.042115 -0.5)
(0.750039 -0.042115 0.5)
(0.750156 -0.040641 0.5)
(0.750351 -0.039176 0.5)
(0.750622 -0.037722 0.5)
(0.750971 -0.036285 0.5)
(0.751394 -0.034868 0.5)
(0.751892 -0.033476 0.5)
(0.752462 -0.032112 0.5)
(0.753104 -0.03078 0.5)
(0.753815 -0.029484 0.5)
(0.754593 -0.028227 0.5)
(0.755437 -0.027012 0.5)
(0.756344 -0.025845 0.5)
(0.757311 -0.024726 0.5)
(0.758336 -0.02366 0.5)
(0.759416 -0.02265 0.5)
(0.760547 -0.021698 0.5)
(0.761727 -0.020807 0.5)
(0.762953 -0.01998 0.5)
(0.76422 -0.019219 0.5)
(0.765526 -0.018525 0.5)
(0.766867 -0.017902 0.5)
(0.768238 -0.01735 0.5)
(0.769637 -0.016871 0.5)
(0.77106 -0.016467 0.5)
(0.772501 -0.016139 0.5)
(0.773958 -0.015887 0.5)
(0.775426 -0.015712 0.5)
(0.776902 -0.015615 0.5)
(0.77838 -0.015596 0.5)
(0.779858 -0.015655 0.5)
(0.78133 -0.015792 0.5)
(0.782793 -0.016007 0.5)
(0.976705 -0.086776 -0.182709)
(0.977651 -0.079072 0.079683)
)


// edges:

212
(
(1 208)
(3 209)
(208 2)
(209 0)
(4 5)
(6 7)
(0 1)
(2 3)
(8 9)
(9 10)
(10 11)
(11 12)
(12 13)
(13 14)
(14 15)
(15 16)
(16 17)
(17 18)
(18 19)
(19 20)
(20 21)
(21 22)
(22 23)
(23 24)
(24 25)
(25 26)
(27 28)
(28 29)
(29 30)
(30 31)
(31 32)
(32 33)
(33 34)
(34 35)
(35 36)
(36 37)
(37 38)
(38 39)
(39 40)
(40 41)
(41 42)
(42 43)
(43 44)
(44 45)
(3 27)
(26 0)
(46 47)
(47 48)
(48 49)
(49 50)
(50 51)
(51 52)
(52 53)
(53 54)
(54 55)
(55 56)
(56 57)
(57 58)
(58 59)
(59 60)
(60 61)
(61 62)
(62 63)
(63 64)
(65 66)
(66 67)
(67 68)
(68 69)
(69 70)
(70 71)
(71 72)
(72 73)
(73 74)
(74 75)
(75 76)
(76 77)
(77 78)
(78 79)
(79 80)
(80 81)
(81 82)
(82 83)
(1 65)
(64 2)
(83 84)
(85 46)
(86 85)
(87 86)
(88 87)
(89 88)
(90 89)
(91 90)
(92 91)
(93 92)
(94 93)
(95 94)
(96 95)
(97 96)
(98 97)
(99 98)
(100 99)
(101 100)
(102 101)
(103 102)
(104 103)
(105 104)
(106 105)
(107 106)
(108 107)
(109 108)
(110 109)
(111 110)
(112 111)
(7 112)
(113 4)
(114 113)
(115 114)
(116 115)
(117 116)
(118 117)
(119 118)
(120 119)
(121 120)
(122 121)
(123 122)
(124 123)
(125 124)
(126 125)
(127 126)
(128 127)
(129 128)
(130 129)
(131 130)
(132 131)
(133 132)
(134 133)
(135 134)
(136 135)
(137 136)
(138 137)
(139 138)
(84 139)
(45 140)
(141 8)
(142 141)
(143 142)
(144 143)
(145 144)
(146 145)
(147 146)
(148 147)
(149 148)
(150 149)
(151 150)
(152 151)
(153 152)
(154 153)
(155 154)
(156 155)
(157 156)
(158 157)
(159 158)
(160 159)
(161 160)
(162 161)
(163 162)
(164 163)
(165 164)
(166 165)
(167 166)
(168 167)
(169 168)
(170 169)
(171 170)
(172 171)
(173 172)
(174 173)
(5 174)
(175 6)
(176 175)
(177 176)
(178 177)
(179 178)
(180 179)
(181 180)
(182 181)
(183 182)
(184 183)
(185 184)
(186 185)
(187 186)
(188 187)
(189 188)
(190 189)
(191 190)
(192 191)
(193 192)
(194 193)
(195 194)
(196 195)
(197 196)
(198 197)
(199 198)
(200 199)
(201 200)
(202 201)
(203 202)
(204 203)
(205 204)
(206 205)
(207 206)
(140 207)
)

// * * * * * * * * * * * * * * * * * * * * * * * * * * * * * * * * * * * * * //


// ************************************************************************* //
