/*--------------------------------*- C++ -*----------------------------------*\
  =========                 |
  \\      /  F ield         | OpenFOAM: The Open Source CFD Toolbox
   \\    /   O peration     | Website:  https://openfoam.org
    \\  /    A nd           | Version:  7
     \\/     M anipulation  |
\*---------------------------------------------------------------------------*/
FoamFile
{
    version     2.0;
    format      ascii;
    class       dictionary;
    object      fvSolution;
}
// * * * * * * * * * * * * * * * * * * * * * * * * * * * * * * * * * * * * * //

solvers
{
    p
    {
        solver           GAMG;
        tolerance        1e-6;
        relTol           0.01;
        smoother         GaussSeidel;
    }

    U
    {
        solver           smoothSolver;
        smoother         GaussSeidel;
        tolerance        1e-6;
        relTol           0.01;
        nSweeps          1;
    }

    k
    {
        solver           smoothSolver;
        smoother         GaussSeidel;
        tolerance        1e-6;
        relTol           0.01;
        nSweeps          1;
    }

    omega
    {
        solver           smoothSolver;
        smoother         GaussSeidel;
        tolerance        1e-6;
        relTol           0.01;
        nSweeps          1;
    }
}

SIMPLE
{
    nNonOrthogonalCorrectors 0;
    
    residualControl
    {
        p               1e-4;
        U               1e-4;
        "(k|omega)"     1e-4;
    }
}

relaxationFactors
{
    fields
    {
        p               0.5;
    }
    equations
    {
        U               0.7;
        k               0.5;
        omega           0.5;
        "(U|k|omega)Final" 1.0;
    }
}

cache
{
    grad(U);
}

// ************************************************************************* //
